%rwf=/home/maxb2/scratch/HNCirc30/
%int=/home/maxb2/scratch/HNCirc30/
%d2e=/home/maxb2/scratch/HNCirc30/
%nosave
%mem=6GB
%nprocshared=3
%chk=HNCirc6311ppGss
# irc=calcfc rhf/6-311++g** gfp 

HNC-HCN

0 1
 N              
 C                  1           B1     
 H                  2           B2     1           A1    

 B1 1.16394317
 B2 1.15577347
 A1 78.73014143

