%chk=F:\5cjh-tmcomplex.chk
# hf/3-21g geom=connectivity

CRYSTAL STRUCTURE OF EUKARYOTIC OXOIRON MAGKATG2 AT PH 8.5

0 1
 C(PDBName=CG,ResName=HIS,ResNum=314_A)              0   42.46100000   29.33800000  -17.53600000 L
 N(PDBName=ND1,ResName=HIS,ResNum=314_A)             0   42.76100000   28.91300000  -18.81000000 L
 C(PDBName=CD2,ResName=HIS,ResNum=314_A)             0   42.33200000   28.21700000  -16.78800000 L
 C(PDBName=CE1,ResName=HIS,ResNum=314_A)               2    1.32061690    1  109.42518241    3    0.96236057    0 L
 N(PDBName=NE2,ResName=HIS,ResNum=314_A)               4    1.31964730    2  108.19538957    1   -0.58069418    0 L H 27
 O(PDBName=O1A,ResName=522,ResNum=801_A)               5    9.15414316    4  105.15741060    2 -121.26753987    0 H
 C(PDBName=CGA,ResName=522,ResNum=801_A)               6    1.25279208    5   54.05870174    4 -177.37373441    0 H
 O(PDBName=O2A,ResName=522,ResNum=801_A)               7    1.24805048    6  123.77677398    5 -144.27133229    0 H
 C(PDBName=CBA,ResName=522,ResNum=801_A)               7    1.50894698    6  117.80302113    5   34.25557598    0 H
 C(PDBName=CAA,ResName=522,ResNum=801_A)               9    1.53265423    7  108.97480837    6  -66.22519490    0 H
 C(PDBName=C2A,ResName=522,ResNum=801_A)              10    1.49665293    9  110.02503060    7 -178.65778238    0 H
 C(PDBName=C1A,ResName=522,ResNum=801_A)              11    1.37589534   10  126.75622873    9   85.64331002    0 H
 C(PDBName=CHA,ResName=522,ResNum=801_A)              12    1.47627809   11  123.63660982   10    3.43336907    0 H
 C(PDBName=C3A,ResName=522,ResNum=801_A)              11    1.38300615   10  126.57593481    9  -93.83383242    0 H
 C(PDBName=CMA,ResName=522,ResNum=801_A)              14    1.50199401   11  127.67330509   10   -0.28751366    0 H
 C(PDBName=C4A,ResName=522,ResNum=801_A)              14    1.38673537   11  103.68864607   10 -179.98934753    0 H
 C(PDBName=CHB,ResName=522,ResNum=801_A)              16    1.46449070   14  122.51967656   11  179.75409279    0 H
 C(PDBName=C1B,ResName=522,ResNum=801_A)              17    1.46515972   16  124.92446407   14  178.66992911    0 H
 C(PDBName=C2B,ResName=522,ResNum=801_A)              18    1.38824133   17  122.47322178   16  178.87885944    0 H
 C(PDBName=CMB,ResName=522,ResNum=801_A)              19    1.49796829   18  125.54655122   17   -0.28238719    0 H
 C(PDBName=C3B,ResName=522,ResNum=801_A)              19    1.39051393   18  105.59983165   17  178.73245803    0 H
 C(PDBName=CAB,ResName=522,ResNum=801_A)              21    1.50096702   19  129.40035778   18  178.94515155    0 H
 O(PDBName=O2,ResName=522,ResNum=801_A)               22    1.42754369   21  111.12861507   19  -59.95877400    0 H
 O(PDBName=O1,ResName=522,ResNum=801_A)               23    1.36668577   22  114.79280065   21  -48.71399056    0 H
 C(PDBName=CBB,ResName=522,ResNum=801_A)              22    1.49820192   21  114.65815625   19   57.79488574    0 H
 N(PDBName=NA,ResName=522,ResNum=801_A)               12    1.33572190   11  112.55465038   10  178.04109359    0 H
 Fe(PDBName=FE,ResName=522,ResNum=801_A)              26    2.04805591   12  127.18671277   11  174.88380017    0 H
 N(PDBName=ND,ResName=522,ResNum=801_A)               27    2.06783703   26   90.80904536   12    3.36970990    0 H
 C(PDBName=C4D,ResName=522,ResNum=801_A)              28    1.33754103   27  128.82761269   26    4.28641613    0 H
 N(PDBName=NB,ResName=522,ResNum=801_A)               18    1.32562891   17  123.67897338   16   -0.81753700    0 H
 C(PDBName=C4B,ResName=522,ResNum=801_A)              30    1.34354643   18  102.65707608   17 -179.06952310    0 H
 C(PDBName=CHC,ResName=522,ResNum=801_A)              31    1.45773420   30  122.55241560   18  175.94524610    0 H
 N(PDBName=NC,ResName=522,ResNum=801_A)               27    2.06407267   26  178.30292084   12  -91.21748821    0 H
 C(PDBName=C1C,ResName=522,ResNum=801_A)              33    1.33357452   27  127.28999247   26  -80.52124664    0 H
 C(PDBName=C2C,ResName=522,ResNum=801_A)              34    1.38529058   33  113.83316141   27  173.94972229    0 H
 C(PDBName=CMC,ResName=522,ResNum=801_A)              35    1.50495382   34  125.17262288   33  177.87087061    0 H
 C(PDBName=C3C,ResName=522,ResNum=801_A)              35    1.37605705   34  104.12490530   33   -2.68343558    0 H
 C(PDBName=CAC,ResName=522,ResNum=801_A)              37    1.48894157   35  129.97079068   34  177.27844100    0 H
 C(PDBName=CBC,ResName=522,ResNum=801_A)              38    1.30786467   37  125.70131567   35   -7.84975868    0 H
 C(PDBName=C4C,ResName=522,ResNum=801_A)              33    1.33132453   27  128.46000908   26   87.88132997    0 H
 C(PDBName=CHD,ResName=522,ResNum=801_A)              40    1.46272451   33  123.70589165   27    9.66976353    0 H
 C(PDBName=C1D,ResName=522,ResNum=801_A)              28    1.33365400   27  129.01260221   26 -177.72742841    0 H
 C(PDBName=C2D,ResName=522,ResNum=801_A)              42    1.39064410   28  113.98301624   27 -175.70988473    0 H
 C(PDBName=CMD,ResName=522,ResNum=801_A)              43    1.50542386   42  127.34470371   28  179.74910812    0 H
 C(PDBName=C3D,ResName=522,ResNum=801_A)              43    1.36596815   42  105.04255556   28   -3.46082724    0 H
 C(PDBName=CAD,ResName=522,ResNum=801_A)              45    1.51517590   43  125.90166344   42  177.48905200    0 H
 C(PDBName=CBD,ResName=522,ResNum=801_A)              46    1.50102465   45  118.13667491   43  106.82835936    0 H
 C(PDBName=CGD,ResName=522,ResNum=801_A)              47    1.51671850   46  109.54436987   45 -173.70070167    0 H
 O(PDBName=O2D,ResName=522,ResNum=801_A)              48    1.26469522   47  121.30934753   46   11.06545231    0 H
 O(PDBName=O1D,ResName=522,ResNum=801_A)              48    1.23680799   47  115.04047513   46 -170.05978439    0 H
 O(PDBName=O,ResName=OH,ResNum=802_A)                 27    2.00116916   26   86.25770722   12  -88.85125408    0 H
 H(PDBName=HD2,ResName=HIS,ResNum=314_A)               3    1.07000000    1  126.41224939    2  179.04711818    0 L
 H(PDBName=HE1,ResName=HIS,ResNum=314_A)               4    1.07000000    2  125.90230517    1  179.41930601    0 L
 H(PDBName=1HBA,ResName=522,ResNum=801_A)              9    1.07000000    7  106.88435749    6  178.60334092    0 H
 H(PDBName=2HBA,ResName=522,ResNum=801_A)              9    1.07000000    7  106.88435722    6   48.94626933    0 H
 H(PDBName=1HAA,ResName=522,ResNum=801_A)             10    1.07000000    9  106.66041761    7  -63.34316608    0 H
 H(PDBName=2HAA,ResName=522,ResNum=801_A)             10    1.07000000    9  106.66041752    7   66.02760104    0 H
 H(PDBName=1HHA,ResName=522,ResNum=801_A)             13    1.07000000   12  102.88624576   11  -57.39799847    0 H
 H(PDBName=2HHA,ResName=522,ResNum=801_A)             13    1.07000000   12  102.88624547   11   67.94774456    0 H
 H(PDBName=1HMA,ResName=522,ResNum=801_A)             15    1.07000000   14  109.47122054   11    0.00000000    0 H
 H(PDBName=2HMA,ResName=522,ResNum=801_A)             15    1.07000000   14  109.47122076   11  119.99999981    0 H
 H(PDBName=3HMA,ResName=522,ResNum=801_A)             15    1.07000000   14  109.47122052   11 -120.00000012    0 H
 H(PDBName=1HHB,ResName=522,ResNum=801_A)             17    1.07000000   16  103.36576406   14   61.56020177    0 H
 H(PDBName=2HHB,ResName=522,ResNum=801_A)             17    1.07000000   16  103.36576418   14  -64.22034377    0 H
 H(PDBName=1HMB,ResName=522,ResNum=801_A)             20    1.07000000   19  109.47122080   18    0.00000000    0 H
 H(PDBName=2HMB,ResName=522,ResNum=801_A)             20    1.07000000   19  109.47122085   18  119.99999980    0 H
 H(PDBName=3HMB,ResName=522,ResNum=801_A)             20    1.07000000   19  109.47122095   18 -119.99999988    0 H
 H(PDBName=HAB,ResName=522,ResNum=801_A)              22    1.07000001   21  103.14413896   19  177.68360642    0 H
 H(PDBName=H1,ResName=522,ResNum=801_A)               24    0.96000000   23  109.47122048   22   11.74844952    0 H
 H(PDBName=1HBB,ResName=522,ResNum=801_A)             25    1.07000000   22  109.47122053   21    0.00000000    0 H
 H(PDBName=2HBB,ResName=522,ResNum=801_A)             25    1.07000000   22  109.47122094   21  120.00000013    0 H
 H(PDBName=3HBB,ResName=522,ResNum=801_A)             25    1.07000000   22  109.47122037   21 -119.99999997    0 H
 H(PDBName=1HHC,ResName=522,ResNum=801_A)             32    1.07000000   31  102.85515792   30 -120.29508435    0 H
 H(PDBName=2HHC,ResName=522,ResNum=801_A)             32    1.07000000   31  102.85515814   30  114.38665727    0 H
 H(PDBName=1HMC,ResName=522,ResNum=801_A)             36    1.07000000   35  109.47122048   34 -180.00000000    0 H
 H(PDBName=2HMC,ResName=522,ResNum=801_A)             36    1.07000000   35  109.47122085   34   59.99999989    0 H
 H(PDBName=3HMC,ResName=522,ResNum=801_A)             36    1.07000000   35  109.47122074   34  -60.00000021    0 H
 H(PDBName=HAC,ResName=522,ResNum=801_A)              38    1.07000000   37  117.14934221   35  172.15024100    0 H
 H(PDBName=1HBC,ResName=522,ResNum=801_A)             39    1.07000000   38  119.99999977   37  180.00000000    0 H
 H(PDBName=2HBC,ResName=522,ResNum=801_A)             39    1.07000000   38  120.00000015   37    0.00000000    0 H
 H(PDBName=1HHD,ResName=522,ResNum=801_A)             41    1.07000000   40  103.16769306   33 -122.37590166    0 H
 H(PDBName=2HHD,ResName=522,ResNum=801_A)             41    1.07000000   40  103.16769287   33  112.02564163    0 H
 H(PDBName=1HMD,ResName=522,ResNum=801_A)             44    1.07000000   43  109.47122042   42 -180.00000000    0 H
 H(PDBName=2HMD,ResName=522,ResNum=801_A)             44    1.06999999   43  109.47122065   42   59.99999997    0 H
 H(PDBName=3HMD,ResName=522,ResNum=801_A)             44    1.07000000   43  109.47122038   42  -60.00000016    0 H
 H(PDBName=1HAD,ResName=522,ResNum=801_A)             46    1.07000000   45  104.89258220   43   -9.51809826    0 H
 H(PDBName=2HAD,ResName=522,ResNum=801_A)             46    1.07000000   45  104.89258200   43 -136.82518297    0 H
 H(PDBName=1HBD,ResName=522,ResNum=801_A)             47    1.07000000   46  106.76305682   45  -58.45133030    0 H
 H(PDBName=2HBD,ResName=522,ResNum=801_A)             47    1.07000000   46  106.76305638   45   71.04992720    0 H
 H                                                     2    1.00000000    1  125.28740877    3 -179.03763943    0 L
 H                                                     1    1.07000000    3  126.97254350    5  179.04711798    0 L

 1 2 1.5 3 2.0 91 1.0
 2 4 2.0 90 1.0
 3 5 1.5 52 1.0
 4 5 2.0 53 1.0
 5
 6 7 2.0
 7 8 2.0 9 1.0
 8
 9 10 1.0 54 1.0 55 1.0
 10 11 1.0 56 1.0 57 1.0
 11 12 2.0 14 2.0
 12 13 1.0 26 1.5
 13 29 1.0 58 1.0 59 1.0
 14 16 1.5 15 1.0
 15 60 1.0 61 1.0 62 1.0
 16 17 1.0 26 1.5
 17 18 1.0 63 1.0 64 1.0
 18 19 1.5 30 1.5
 19 20 1.0 21 1.5
 20 65 1.0 66 1.0 67 1.0
 21 22 1.0 31 1.5
 22 23 1.0 25 1.0 68 1.0
 23 24 1.0
 24 69 1.0
 25 70 1.0 71 1.0 72 1.0
 26 27 1.0
 27 51 2.0 28 1.0 33 1.0 30 1.0
 28 29 1.5 42 1.5
 29 45 1.5
 30 31 1.5
 31 32 1.0
 32 34 1.0 73 1.0 74 1.0
 33 34 1.5 40 1.5
 34 35 2.0
 35 36 1.0 37 2.0
 36 75 1.0 76 1.0 77 1.0
 37 38 1.0 40 1.5
 38 39 2.0 78 1.0
 39 79 1.0 80 1.0
 40 41 1.0
 41 42 1.0 81 1.0 82 1.0
 42 43 1.5
 43 45 2.0 44 1.0
 44 83 1.0 84 1.0 85 1.0
 45 46 1.0
 46 47 1.0 86 1.0 87 1.0
 47 48 1.0 88 1.0 89 1.0
 48 49 2.0 50 2.0
 49
 50
 51
 52
 53
 54
 55
 56
 57
 58
 59
 60
 61
 62
 63
 64
 65
 66
 67
 68
 69
 70
 71
 72
 73
 74
 75
 76
 77
 78
 79
 80
 81
 82
 83
 84
 85
 86
 87
 88
 89
 90
 91

Helix AA1 RHAlpha 67_A 72_A
Helix AA2 RH310 78_A 82_A
Helix AA3 RH310 85_A 89_A
Helix AA4 RHAlpha 96_A 103_A
Helix AA5 RHAlpha 105_A 118_A
Helix AA6 RH310 126_A 130_A
Helix AA7 RHAlpha 131_A 144_A
Helix AA8 RH310 158_A 162_A
Helix AA9 RH310 164_A 172_A
Helix AB1 RHAlpha 173_A 189_A
Helix AB2 RH310 190_A 192_A
Helix AB3 RHAlpha 193_A 209_A
Helix AB4 RH310 256_A 260_A
Helix AB5 RH310 278_A 282_A
Helix AB6 RHAlpha 284_A 299_A
Helix AB7 RHAlpha 302_A 314_A
Helix AB8 RH310 324_A 328_A
Helix AB9 RH310 331_A 335_A
Helix AC1 RH310 336_A 340_A
Helix AC2 RH310 352_A 356_A
Helix AC3 RHAlpha 374_A 383_A
Helix AC4 RHAlpha 421_A 426_A
Helix AC5 RH310 427_A 429_A
Helix AC6 RHAlpha 430_A 443_A
Helix AC7 RHAlpha 443_A 461_A
Helix AC8 RH310 465_A 469_A
Helix AC9 RH310 479_A 483_A
Helix AD1 RHAlpha 494_A 507_A
Helix AD2 RHAlpha 512_A 525_A
Helix AD3 RH310 539_A 543_A
Helix AD4 RH310 545_A 552_A
Helix AD5 RHAlpha 553_A 572_A
Helix AD6 RHAlpha 581_A 601_A
Helix AD7 RH310 617_A 621_A
Helix AD8 RHAlpha 622_A 628_A
Helix AD9 RHAlpha 647_A 659_A
Helix AE1 RHAlpha 662_A 676_A
Helix AE2 RHAlpha 697_A 704_A
Helix AE3 RHAlpha 736_A 740_A
Helix AE4 RH310 741_A 743_A
Helix AE5 RHAlpha 744_A 756_A
Helix AE6 RHAlpha 759_A 776_A
Helix AE7 RHAlpha 67_B 72_B
Helix AE8 RH310 78_B 82_B
Helix AE9 RH310 85_B 89_B
Helix AF1 RHAlpha 96_B 103_B
Helix AF2 RHAlpha 105_B 117_B
Helix AF3 RH310 126_B 130_B
Helix AF4 RHAlpha 131_B 144_B
Helix AF5 RH310 158_B 162_B
Helix AF6 RH310 164_B 172_B
Helix AF7 RHAlpha 173_B 189_B
Helix AF8 RH310 190_B 192_B
Helix AF9 RHAlpha 193_B 208_B
Helix AG1 RH310 244_B 248_B
Helix AG2 RHAlpha 252_B 257_B
Helix AG3 RH310 258_B 260_B
Helix AG4 RH310 278_B 282_B
Helix AG5 RHAlpha 284_B 299_B
Helix AG6 RHAlpha 302_B 314_B
Helix AG7 RH310 324_B 328_B
Helix AG8 RH310 331_B 335_B
Helix AG9 RH310 336_B 340_B
Helix AH1 RH310 352_B 356_B
Helix AH2 RHAlpha 374_B 383_B
Helix AH3 RHAlpha 421_B 426_B
Helix AH4 RH310 427_B 429_B
Helix AH5 RHAlpha 430_B 443_B
Helix AH6 RHAlpha 443_B 461_B
Helix AH7 RH310 465_B 469_B
Helix AH8 RH310 479_B 483_B
Helix AH9 RHAlpha 494_B 506_B
Helix AI1 RHAlpha 512_B 525_B
Helix AI2 RH310 539_B 543_B
Helix AI3 RH310 545_B 552_B
Helix AI4 RHAlpha 553_B 573_B
Helix AI5 RHAlpha 581_B 601_B
Helix AI6 RHAlpha 622_B 628_B
Helix AI7 RHAlpha 647_B 659_B
Helix AI8 RHAlpha 662_B 676_B
Helix AI9 RHAlpha 697_B 704_B
Helix AJ1 RHAlpha 736_B 740_B
Helix AJ2 RH310 741_B 743_B
Helix AJ3 RHAlpha 744_B 756_B
Helix AJ4 RHAlpha 759_B 776_B
Sheet AA1 First 386_A 389_A
Sheet AA1 AntiParallel 395_A 398_A
Sheet AA1 AntiParallel 419_A 420_A
Sheet AA2 First 406_A 408_A
Sheet AA2 AntiParallel 411_A 416_A
Sheet AA3 First 633_A 634_A
Sheet AA3 AntiParallel 639_A 640_A
Sheet AA4 First 708_A 712_A
Sheet AA4 AntiParallel 719_A 724_A
Sheet AA4 AntiParallel 730_A 735_A
Sheet AA5 First 386_B 389_B
Sheet AA5 AntiParallel 395_B 398_B
Sheet AA5 AntiParallel 419_B 420_B
Sheet AA6 First 406_B 407_B
Sheet AA6 AntiParallel 415_B 416_B
Sheet AA7 First 633_B 634_B
Sheet AA7 AntiParallel 639_B 640_B
Sheet AA8 First 708_B 712_B
Sheet AA8 AntiParallel 719_B 724_B
Sheet AA8 AntiParallel 730_B 735_B

