%mem=7GB
%nprocshared=4
%chk=HNCirc6311ppGss
# irc=(maxpoints=33,maxcycle=50,report,calcfc) rhf/6-311++g** gfp 

HNC-HCN

0 1
 N              
 C                  1           B1     
 H                  2           B2     1           A1    

 B1 1.16394317
 B2 1.15577347
 A1 78.73014143

