%mem=7GB
%nprocshared=4
%chk=HNCirc6311Gss
# irc=(maxpoints=33,maxcycle=50,report,calcfc) rhf/6-311g** gfp 

HNC-HCN

0 1
 N              
 C                  1           B1     
 H                  2           B2     1           A1    

 B1 1.16349908
 B2 1.15484412
 A1 78.78059145

