%chk=C:\Users\epktb\Desktop\BT1DFT.chk
# opt b3lyp/6-311+g geom=connectivity

BT1

0 1
 C                 -0.48301673   -0.37749446    1.24610949
 C                  0.81219071    0.12171099    1.04380211
 C                  1.03725666    1.29809812    0.32603445
 C                 -0.07988673    2.00990926   -0.02769578
 C                 -1.33489312    1.46577406    0.01530349
 C                 -1.58530277    0.26529324    0.67782306
 H                 -0.63113993   -1.25354772    1.82250378
 H                  1.64734652   -0.39794444    1.42194361
 C                 -2.95126066   -0.39045913    0.73480825
 C                 -4.22847783    0.16218457    0.67750252
 C                 -5.32066989   -0.90868550    0.40474616
 C                 -4.74574566   -2.12913783    0.24164565
 S                 -3.11091942   -2.14401006    0.92104500
 H                 -4.41942242    1.21102395    0.78521558
 H                 -6.37229449   -0.70904197    0.32501984
 N                 -2.26051044    2.23669544   -0.74385196
 N                 -0.08012596    3.39281147   -0.47022355
 S                 -1.63175986    3.75222952   -0.99372715
 C                  5.02137748    1.62644567   -0.10007011
 C                  4.47263475    2.31454771   -1.15872820
 C                  2.92070461    2.36205107   -1.06220734
 C                  2.48863065    1.64874383    0.00910756
 S                  3.77207768    1.06740772    1.01969966
 H                  5.01331417    2.75452909   -1.93727295
 H                  2.28766611    2.87121959   -1.74917000
 C                 -7.18246766   -4.57148915   -1.88477321
 C                 -6.11154204   -5.29932124   -1.55986354
 C                 -5.08018422   -4.47833349   -0.72029172
 C                 -5.46877254   -3.22258263   -0.54299871
 S                 -6.98340671   -2.89265727   -1.41542425
 H                 -8.06111213   -4.97956201   -2.35399328
 H                 -5.97536334   -6.29582909   -1.85105459
 H                 -4.18322005   -4.87289911   -0.32680433
 C                  6.50839201    1.33153132    0.20697783
 C                  6.93123691    1.03116691    1.45443168
 C                  8.34111459    0.40404352    1.43168174
 C                  8.78178038    0.30798374    0.17850922
 S                  7.83046618    1.29868513   -0.94655844
 H                  6.35456761    1.19720578    2.34371513
 H                  8.87793993    0.06502842    2.30213795
 H                  9.58326913   -0.28097528   -0.12359306

 1 2 1.5 6 1.5 7 1.0
 2 3 1.5 8 1.0
 3 4 1.5 22 1.0
 4 5 1.5 17 1.0
 5 6 1.5 16 1.0
 6 9 1.0
 7
 8
 9 10 2.0 13 1.0
 10 11 1.0 14 1.0
 11 12 2.0 15 1.0
 12 13 1.0 29 1.0
 13
 14
 15
 16 18 1.0
 17 18 1.0
 18
 19 20 2.0 23 1.0 34 1.0
 20 21 1.0 24 1.0
 21 22 2.0 25 1.0
 22 23 1.0
 23
 24
 25
 26 27 2.0 30 1.0 31 1.0
 27 28 1.0 32 1.0
 28 29 2.0 33 1.0
 29 30 1.0
 30
 31
 32
 33
 34 35 2.0 38 1.0
 35 36 1.0 39 1.0
 36 37 2.0 40 1.0
 37 38 1.0 41 1.0
 38
 39
 40
 41

