%chk=Benzene.chk
#td=(singlet,nstates=20) 6-311+g(3df,2pd) svwn5 geom=connectivity

Benzene

0 1
 C                 -1.33813800   -0.35752700    0.00000100
 C                 -0.35927800   -1.33731900    0.00010200
 C                  0.97867900   -0.97984900   -0.00005600
 C                  1.33812400    0.35757300    0.00001900
 C                  0.35932500    1.33730700    0.00005700
 C                 -0.97871200    0.97981600   -0.00007400
 H                 -2.39432600   -0.64007400   -0.00002800
 H                 -0.64287300   -2.39326100   -0.00003900
 H                  1.75131300   -1.75343700   -0.00016800
 H                  2.39435200    0.63996500   -0.00006700
 H                  0.64277400    2.39328600    0.00008700
 H                 -1.75123500    1.75351800   -0.00008300

 1 2 2.0 6 2.0 7 1.0
 2 3 2.0 8 1.0
 3 4 2.0 9 1.0
 4 5 2.0 10 1.0
 5 6 2.0 11 1.0
 6 12 1.0
 7
 8
 9
 10
 11
 12

