%chk=Benzene.chk
#opt 6-311+g(3df,2pd) svwn5 pop=orbitals=6 symmetry=(follow,pg=D6h)

Benzene

0 3
 C                 -0.04601227    0.46012269    0.00000000
 C                  1.34914773    0.46012269    0.00000000
 C                  2.04668573    1.66787369    0.00000000
 C                  1.34903173    2.87638269   -0.00119900
 C                 -0.04579327    2.87630469   -0.00167800
 C                 -0.74339427    1.66809869   -0.00068200
 H                 -0.59577127   -0.49219431    0.00045000
 H                  1.89865573   -0.49239031    0.00131500
 H                  3.14636573    1.66795369    0.00063400
 H                  1.89923173    3.82852569   -0.00125800
 H                 -0.59591527    3.82858569   -0.00263100
 H                 -1.84299827    1.66828169   -0.00086200

