%nprocshared=8
%mem=1GB
%chk=Ethanolb3lypnmr
# b3lyp/6-311+g(2d,p) nmr=(giao,spinspin) geom=connectivity

Title Card Required

0 1
 C              
 C                  1            B1
 O                  2            B2    1            A1
 H                  1            B3    2            A2    3            D1    0
 H                  1            B4    2            A3    3            D2    0
 H                  1            B5    2            A4    3            D3    0
 H                  2            B6    1            A5    3            D4    0
 H                  2            B7    1            A6    3            D5    0
 H                  3            B8    2            A7    1            D6    0

 B1 1.51183328
 B2 1.4047073
 B3 1.08521746
 B4 1.08400544
 B5 1.083976
 B6 1.08763934
 B7 1.08765836
 B8 0.94089562
 A1 108.41353518
 A2 110.35647248
 A3 110.45556715
 A4 110.47011636
 A5 110.09669466
 A6 110.09704152
 A7 110.19758582
 D1 -179.98040367
 D2 -59.90281384
 D3 59.91323241
 D4 120.6729173
 D5 -120.68164992
 D6 -179.946875

 1 2 1.0 4 1.0 5 1.0 6 1.0
 2 3 1.0 7 1.0 8 1.0
 3 9 1.0
 4
 5
 6
 7
 8
 9

