%mem=256MW
%nprocshared=2
%chk=C:\Users\maxb2\Desktop\Ethanol.Opt.chk
# opt hf/6-311+g(2d,p) geom=connectivity

Title Card Required

0 1
 C              
 C                  1            B1
 O                  2            B2    1            A1
 H                  1            B3    2            A2    3            D1    0
 H                  1            B4    2            A3    3            D2    0
 H                  1            B5    2            A4    3            D3    0
 H                  2            B6    1            A5    3            D4    0
 H                  2            B7    1            A6    3            D5    0
 H                  3            B8    2            A7    1            D6    0

   B1             1.90674288
   B2             1.43000000
   B3             1.07000000
   B4             1.07000000
   B5             1.07000000
   B6             1.07000000
   B7             1.07000000
   B8             0.96000000
   A1           109.47122063
   A2           109.47122063
   A3           109.47122063
   A4           109.47122063
   A5           109.47122063
   A6           109.47122063
   A7           109.47122063
   D1          -120.55457380
   D2            -0.55457380
   D3           119.44542620
   D4           120.00000000
   D5          -120.00000000
   D6           179.29390605

 1 2 1.0 4 1.0 5 1.0 6 1.0
 2 3 1.0 7 1.0 8 1.0
 3 9 1.0
 4
 5
 6
 7
 8
 9

